
**** 02/27/19 06:56:43 ***** PSpice 16.6.0 (October 2012) ***** ID# 0 ********

 ** Profile: "SCHEMATIC1-Transient"  [ C:\Users\shahb\Documents\resisitiveload-pspicefiles\schematic1\transient.sim ] 


 ****     CIRCUIT DESCRIPTION


******************************************************************************




** Creating circuit file "Transient.cir" 
** WARNING: THIS AUTOMATICALLY GENERATED FILE MAY BE OVERWRITTEN BY SUBSEQUENT SIMULATIONS

*Libraries: 
* Profile Libraries :
* Local Libraries :
.LIB "../../../resisitiveload-pspicefiles/resisitiveload.lib" 
* From [PSPICE NETLIST] section of C:\Users\shahb\AppData\Roaming\SPB_Data\cdssetup\OrCAD_PSpice/16.6.0/PSpice.ini file:
.lib "nom.lib" 

*Analysis directives: 
.DC LIN V1 0 1.8 0.1 
.OPTIONS ADVCONV
.PROBE64 V(alias(*)) I(alias(*)) W(alias(*)) D(alias(*)) NOISE(alias(*)) 
.INC "..\SCHEMATIC1.net" 



**** INCLUDING SCHEMATIC1.net ****
* source RESISITIVELOAD
M_M1         N00188 N00145 0 0 Mbreakn  
+ L=180n  
+ W=180n         
R_R1         N00188 N000731 30k
C_C1         0 N00188 3.5f TC=0
V_V2         N000731 0 1.8
V_V3         N00145 0  
+PULSE 0 1.8 0 0.5n 0.5n 5n 10nm

**** RESUMING Transient.cir ****
.END


ERROR(ORPSIM-15090): DC device V1 is undefined
